!-Generator IDFEditor 1.44
!-Option SortedOrder ViewInIPunits

!-NOTE: All comments with '!-' are ignored by the IDFEditor and are generated automatically.
!-      Use '!' comments if they need to be retained when using the IDFEditor.


!-   ===========  ALL OBJECTS IN CLASS: VERSION ===========

Version,
    8.8;                     !- Version Identifier


!-   ===========  ALL OBJECTS IN CLASS: SIMULATIONCONTROL ===========

SimulationControl,
    Yes,                     !- Do Zone Sizing Calculation
    Yes,                     !- Do System Sizing Calculation
    No,                      !- Do Plant Sizing Calculation
    No,                      !- Run Simulation for Sizing Periods
    Yes;                     !- Run Simulation for Weather File Run Periods


!-   ===========  ALL OBJECTS IN CLASS: BUILDING ===========

Building,
    PCM 23C Walls & Roof Container Home,  !- Name
    0,                       !- North Axis {deg}
    Suburbs,                 !- Terrain
    0.04,                    !- Loads Convergence Tolerance Value
    0.4,                     !- Temperature Convergence Tolerance Value {deltaC}
    FullExterior,            !- Solar Distribution
    25,                      !- Maximum Number of Warmup Days
    6;                       !- Minimum Number of Warmup Days


!-   ===========  ALL OBJECTS IN CLASS: SHADOWCALCULATION ===========

ShadowCalculation,
    AverageOverDaysInFrequency,  !- Calculation Method
    31,                      !- Calculation Frequency
    15000;                   !- Maximum Figures in Shadow Overlap Calculations


!-   ===========  ALL OBJECTS IN CLASS: SURFACECONVECTIONALGORITHM:INSIDE ===========

SurfaceConvectionAlgorithm:Inside,
    TARP;                    !- Algorithm


!-   ===========  ALL OBJECTS IN CLASS: SURFACECONVECTIONALGORITHM:OUTSIDE ===========

SurfaceConvectionAlgorithm:Outside,
    DOE-2;                   !- Algorithm


!-   ===========  ALL OBJECTS IN CLASS: HEATBALANCEALGORITHM ===========

HeatBalanceAlgorithm,
    ConductionTransferFunction,  !- Algorithm
    200,                     !- Surface Temperature Upper Limit {C}
    0.1,                     !- Minimum Surface Convection Heat Transfer Coefficient Value {W/m2-K}
    1000;                    !- Maximum Surface Convection Heat Transfer Coefficient Value {W/m2-K}


!-   ===========  ALL OBJECTS IN CLASS: HEATBALANCESETTINGS:CONDUCTIONFINITEDIFFERENCE ===========

HeatBalanceSettings:ConductionFiniteDifference,
    FullyImplicitFirstOrder, !- Difference Scheme
    3,                       !- Space Discretization Constant
    1,                       !- Relaxation Factor
    0.01;                    !- Inside Face Surface Temperature Convergence Criteria


!-   ===========  ALL OBJECTS IN CLASS: TIMESTEP ===========

Timestep,
    20;                      !- Number of Timesteps per Hour


!-   ===========  ALL OBJECTS IN CLASS: CONVERGENCELIMITS ===========

ConvergenceLimits,
    20,                      !- Minimum System Timestep {minutes}
    100,                     !- Maximum HVAC Iterations
    10,                      !- Minimum Plant Iterations
    16;                      !- Maximum Plant Iterations


!-   ===========  ALL OBJECTS IN CLASS: SIZINGPERIOD:WEATHERFILECONDITIONTYPE ===========

SizingPeriod:WeatherFileConditionType,
    Hot,                     !- Name
    SummerExtreme,           !- Period Selection
    Monday,                  !- Day of Week for Start Day
    Yes,                     !- Use Weather File Daylight Saving Period
    Yes;                     !- Use Weather File Rain and Snow Indicators

SizingPeriod:WeatherFileConditionType,
    Cold,                    !- Name
    WinterExtreme,           !- Period Selection
    Monday,                  !- Day of Week for Start Day
    Yes,                     !- Use Weather File Daylight Saving Period
    Yes;                     !- Use Weather File Rain and Snow Indicators


!-   ===========  ALL OBJECTS IN CLASS: RUNPERIOD ===========

RunPeriod,
    Annual,                  !- Name
    1,                       !- Begin Month
    1,                       !- Begin Day of Month
    12,                      !- End Month
    31,                      !- End Day of Month
    UseWeatherFile,          !- Day of Week for Start Day
    Yes,                     !- Use Weather File Holidays and Special Days
    Yes,                     !- Use Weather File Daylight Saving Period
    Yes,                     !- Apply Weekend Holiday Rule
    Yes,                     !- Use Weather File Rain Indicators
    Yes,                     !- Use Weather File Snow Indicators
    1;                       !- Number of Times Runperiod to be Repeated


!-   ===========  ALL OBJECTS IN CLASS: SCHEDULETYPELIMITS ===========

ScheduleTypeLimits,
    Any Number;              !- Name

ScheduleTypeLimits,
    Fraction,                !- Name
    0.0,                     !- Lower Limit Value
    1.0,                     !- Upper Limit Value
    CONTINUOUS;              !- Numeric Type

ScheduleTypeLimits,
    Temperature,             !- Name
    -60,                     !- Lower Limit Value
    200,                     !- Upper Limit Value
    CONTINUOUS;              !- Numeric Type

ScheduleTypeLimits,
    On/Off,                  !- Name
    0,                       !- Lower Limit Value
    1,                       !- Upper Limit Value
    DISCRETE;                !- Numeric Type

ScheduleTypeLimits,
    Control Type,            !- Name
    0,                       !- Lower Limit Value
    4,                       !- Upper Limit Value
    DISCRETE;                !- Numeric Type

ScheduleTypeLimits,
    Humidity,                !- Name
    10,                      !- Lower Limit Value
    90,                      !- Upper Limit Value
    CONTINUOUS;              !- Numeric Type

ScheduleTypeLimits,
    Number;                  !- Name

ScheduleTypeLimits,
    BESTTESST Any Number;    !- Name

!
! -------------------------------------------------------------
! New objects created from ExpandObjects
! -------------------------------------------------------------
!
ScheduleTypeLimits,
    HVACTemplate Any Number; !- Name


!-   ===========  ALL OBJECTS IN CLASS: SCHEDULE:COMPACT ===========

Schedule:Compact,
    BESTTESST-Always 20,     !- Name
    BESTTESST Any Number,    !- Schedule Type Limits Name
    Through: 12/31,          !- Field 1
    For: AllDays,            !- Field 2
    Until: 24:00,            !- Field 3
    20;                      !- Field 4

Schedule:Compact,
    BESTTESST-Always 25,     !- Name
    BESTTESST Any Number,    !- Schedule Type Limits Name
    Through: 12/31,          !- Field 1
    For: AllDays,            !- Field 2
    Until: 24:00,            !- Field 3
    25;                      !- Field 4

Schedule:Compact,
    BESTTESST-Always 4,      !- Name
    BESTTESST Any Number,    !- Schedule Type Limits Name
    Through: 12/31,          !- Field 1
    For: AllDays,            !- Field 2
    Until: 24:00,            !- Field 3
    4;                       !- Field 4

Schedule:Compact,
    On,                      !- Name
    Any Number,              !- Schedule Type Limits Name
    Through: 12/31,          !- Field 1
    For: AllDays,            !- Field 2
    Until: 24:00,            !- Field 3
    1;                       !- Field 4

Schedule:Compact,
    Heating Availability Sch,!- Name
    Any Number,              !- Schedule Type Limits Name
    Through: 12/31,          !- Field 1
    For: AllDays,            !- Field 2
    Until: 24:00,            !- Field 3
    1;                       !- Field 4

Schedule:Compact,
    Cooling Availability Sch,!- Name
    Any Number,              !- Schedule Type Limits Name
    Through: 12/31,          !- Field 1
    For: AllDays,            !- Field 2
    Until: 24:00,            !- Field 3
    1;                       !- Field 4

Schedule:Compact,
    Zone Control Type Sched, !- Name
    Control Type,            !- Schedule Type Limits Name
    Through: 12/31,          !- Field 1
    For: SummerDesignDay,    !- Field 2
    Until: 24:00,            !- Field 3
    4,                       !- Field 4
    For: WinterDesignDay,    !- Field 5
    Until: 24:00,            !- Field 6
    4,                       !- Field 7
    For: AllOtherDays,       !- Field 8
    Until: 24:00,            !- Field 9
    4;                       !- Field 10

Schedule:Compact,
    INFIL_SCH_PNNL,          !- Name
    fraction,                !- Schedule Type Limits Name
    Through: 12/31,          !- Field 1
    For: Weekdays SummerDesignDay,  !- Field 2
    Until: 06:00,            !- Field 3
    1.0,                     !- Field 4
    Until: 22:00,            !- Field 5
    0.25,                    !- Field 6
    Until: 24:00,            !- Field 7
    1.0,                     !- Field 8
    For: Saturday WinterDesignDay,  !- Field 9
    Until: 06:00,            !- Field 10
    1.0,                     !- Field 11
    Until: 18:00,            !- Field 12
    0.25,                    !- Field 13
    Until: 24:00,            !- Field 14
    1.0,                     !- Field 15
    For: Sunday Holidays AllOtherDays,  !- Field 16
    Until: 24:00,            !- Field 17
    1.0;                     !- Field 18

Schedule:Compact,
    WorkEfficiency,          !- Name
    Fraction,                !- Schedule Type Limits Name
    Through: 12/31,          !- Field 1
    For: AllDays,            !- Field 2
    Until: 24:00,            !- Field 3
    0.0;                     !- Field 4

Schedule:Compact,
    AirVolicity,             !- Name
    Any Number,              !- Schedule Type Limits Name
    Through: 12/31,          !- Field 1
    For: AllDays,            !- Field 2
    Until: 24:00,            !- Field 3
    0.2;                     !- Field 4

Schedule:Compact,
    OCC-SCHED-BldgAvg,       !- Name
    Any Number,              !- Schedule Type Limits Name
    Through: 12/31,          !- Field 1
    For: Weekdays SummerDesignDay,  !- Field 2
    Until:  4:00,            !- Field 3
    0.,                      !- Field 4
    Until:  5:00,            !- Field 5
    0.05,                    !- Field 6
    Until:  6:00,            !- Field 7
    0.1,                     !- Field 8
    Until:  7:00,            !- Field 9
    0.25,                    !- Field 10
    Until: 11:00,            !- Field 11
    0.65,                    !- Field 12
    Until: 13:00,            !- Field 13
    0.6,                     !- Field 14
    Until: 17:00,            !- Field 15
    0.65,                    !- Field 16
    Until: 18:00,            !- Field 17
    0.4,                     !- Field 18
    Until: 19:00,            !- Field 19
    0.25,                    !- Field 20
    Until: 20:00,            !- Field 21
    0.1,                     !- Field 22
    Until: 23:00,            !- Field 23
    0.05,                    !- Field 24
    Until: 24:00,            !- Field 25
    0.,                      !- Field 26
    For: Saturday,           !- Field 27
    Until:  6:00,            !- Field 28
    0.,                      !- Field 29
    Until:  7:00,            !- Field 30
    0.05,                    !- Field 31
    Until: 17:00,            !- Field 32
    0.15,                    !- Field 33
    Until: 20:00,            !- Field 34
    0.05,                    !- Field 35
    Until: 24:00,            !- Field 36
    0.,                      !- Field 37
    For: Sunday Holidays WinterDesignDay AllOtherDays,  !- Field 38
    Until:  7:00,            !- Field 39
    0.,                      !- Field 40
    Until: 20:00,            !- Field 41
    0.05,                    !- Field 42
    Until: 24:00,            !- Field 43
    0.;                      !- Field 44

Schedule:Compact,
    LIT-SCHED-BldgAvg,       !- Name
    Any Number,              !- Schedule Type Limits Name
    Through: 12/31,          !- Field 1
    For: Weekdays SummerDesignDay,  !- Field 2
    Until:  4:00,            !- Field 3
    0.05,                    !- Field 4
    Until:  5:00,            !- Field 5
    0.1,                     !- Field 6
    Until:  6:00,            !- Field 7
    0.2,                     !- Field 8
    Until:  7:00,            !- Field 9
    0.4,                     !- Field 10
    Until:  8:00,            !- Field 11
    0.7,                     !- Field 12
    Until:  9:00,            !- Field 13
    0.8,                     !- Field 14
    Until:  17:00,           !- Field 15
    0.85,                    !- Field 16
    Until:  18:00,           !- Field 17
    0.8,                     !- Field 18
    Until:  19:00,           !- Field 19
    0.35,                    !- Field 20
    Until: 24:00,            !- Field 21
    0.1,                     !- Field 22
    For: Saturday,           !- Field 23
    Until:  5:00,            !- Field 24
    0.05,                    !- Field 25
    Until:  6:00,            !- Field 26
    0.1,                     !- Field 27
    Until:  7:00,            !- Field 28
    0.15,                    !- Field 29
    Until:  9:00,            !- Field 30
    0.21,                    !- Field 31
    Until: 14:00,            !- Field 32
    0.25,                    !- Field 33
    Until: 17:00,            !- Field 34
    0.2,                     !- Field 35
    Until: 18:00,            !- Field 36
    0.15,                    !- Field 37
    Until: 24:00,            !- Field 38
    0.1,                     !- Field 39
    For: Sunday Holidays WinterDesignDay AllOtherDays,  !- Field 40
    Until:  5:00,            !- Field 41
    0.05,                    !- Field 42
    Until:  7:00,            !- Field 43
    0.1,                     !- Field 44
    Until:  17:00,           !- Field 45
    0.15,                    !- Field 46
    Until:  20:00,           !- Field 47
    0.1,                     !- Field 48
    Until:  24:00,           !- Field 49
    0.05;                    !- Field 50

Schedule:Compact,
    LIT_BiLevel-SCHED,       !- Name
    Any Number,              !- Schedule Type Limits Name
    Through: 12/31,          !- Field 1
    For: Weekdays SummerDesignDay,  !- Field 2
    Until:  4:00,            !- Field 3
    0.04,                    !- Field 4
    Until:  5:00,            !- Field 5
    0.08,                    !- Field 6
    Until:  6:00,            !- Field 7
    0.15,                    !- Field 8
    Until:  7:00,            !- Field 9
    0.31,                    !- Field 10
    Until:  8:00,            !- Field 11
    0.56,                    !- Field 12
    Until:  9:00,            !- Field 13
    0.67,                    !- Field 14
    Until:  10:00,           !- Field 15
    0.73,                    !- Field 16
    Until:  14:00,           !- Field 17
    0.74,                    !- Field 18
    Until:  15:00,           !- Field 19
    0.73,                    !- Field 20
    Until:  16:00,           !- Field 21
    0.71,                    !- Field 22
    Until:  17:00,           !- Field 23
    0.70,                    !- Field 24
    Until:  18:00,           !- Field 25
    0.64,                    !- Field 26
    Until:  19:00,           !- Field 27
    0.28,                    !- Field 28
    Until:  21:00,           !- Field 29
    0.08,                    !- Field 30
    Until:  23:00,           !- Field 31
    0.07,                    !- Field 32
    Until:  24:00,           !- Field 33
    0.08,                    !- Field 34
    For: Saturday,           !- Field 35
    Until:  5:00,            !- Field 36
    0.04,                    !- Field 37
    Until:  6:00,            !- Field 38
    0.08,                    !- Field 39
    Until:  7:00,            !- Field 40
    0.12,                    !- Field 41
    Until:  8:00,            !- Field 42
    0.2,                     !- Field 43
    Until:  14:00,           !- Field 44
    0.22,                    !- Field 45
    Until:  16:00,           !- Field 46
    0.17,                    !- Field 47
    Until:  17:00,           !- Field 48
    0.16,                    !- Field 49
    Until:  18:00,           !- Field 50
    0.12,                    !- Field 51
    Until:  21:00,           !- Field 52
    0.08,                    !- Field 53
    Until:  23:00,           !- Field 54
    0.07,                    !- Field 55
    Until:  24:00,           !- Field 56
    0.08,                    !- Field 57
    For: Sunday Holidays WinterDesignDay AllOtherDays,  !- Field 58
    Until:  5:00,            !- Field 59
    0.04,                    !- Field 60
    Until:  7:00,            !- Field 61
    0.08,                    !- Field 62
    Until:  8:00,            !- Field 63
    0.12,                    !- Field 64
    Until:  16:00,           !- Field 65
    0.13,                    !- Field 66
    Until:  17:00,           !- Field 67
    0.12,                    !- Field 68
    Until:  20:00,           !- Field 69
    0.08,                    !- Field 70
    Until:  24:00,           !- Field 71
    0.04;                    !- Field 72

Schedule:Compact,
    LIT_Stack-SCHED,         !- Name
    Any Number,              !- Schedule Type Limits Name
    Through: 12/31,          !- Field 1
    For: Weekdays SummerDesignDay,  !- Field 2
    Until:  4:00,            !- Field 3
    0.04,                    !- Field 4
    Until:  5:00,            !- Field 5
    0.09,                    !- Field 6
    Until:  6:00,            !- Field 7
    0.17,                    !- Field 8
    Until:  7:00,            !- Field 9
    0.34,                    !- Field 10
    Until:  8:00,            !- Field 11
    0.6,                     !- Field 12
    Until:  9:00,            !- Field 13
    0.68,                    !- Field 14
    Until:  17:00,           !- Field 15
    0.72,                    !- Field 16
    Until:  18:00,           !- Field 17
    0.68,                    !- Field 18
    Until:  19:00,           !- Field 19
    0.3,                     !- Field 20
    Until: 24:00,            !- Field 21
    0.09,                    !- Field 22
    For: Saturday,           !- Field 23
    Until:  5:00,            !- Field 24
    0.04,                    !- Field 25
    Until:  6:00,            !- Field 26
    0.09,                    !- Field 27
    Until:  7:00,            !- Field 28
    0.13,                    !- Field 29
    Until: 14:00,            !- Field 30
    0.22,                    !- Field 31
    Until: 17:00,            !- Field 32
    0.17,                    !- Field 33
    Until: 18:00,            !- Field 34
    0.13,                    !- Field 35
    Until: 24:00,            !- Field 36
    0.09,                    !- Field 37
    For: Sunday Holidays WinterDesignDay AllOtherDays,  !- Field 38
    Until:  5:00,            !- Field 39
    0.04,                    !- Field 40
    Until:  7:00,            !- Field 41
    0.09,                    !- Field 42
    Until:  17:00,           !- Field 43
    0.13,                    !- Field 44
    Until:  20:00,           !- Field 45
    0.09,                    !- Field 46
    Until:  24:00,           !- Field 47
    0.04;                    !- Field 48

Schedule:Compact,
    LIT_Library-SCHED,       !- Name
    Any Number,              !- Schedule Type Limits Name
    Through: 12/31,          !- Field 1
    For: Weekdays SummerDesignDay,  !- Field 2
    Until:  4:00,            !- Field 3
    0.04,                    !- Field 4
    Until:  5:00,            !- Field 5
    0.08,                    !- Field 6
    Until:  6:00,            !- Field 7
    0.16,                    !- Field 8
    Until:  7:00,            !- Field 9
    0.33,                    !- Field 10
    Until:  8:00,            !- Field 11
    0.6,                     !- Field 12
    Until:  9:00,            !- Field 13
    0.73,                    !- Field 14
    Until:  10:00,           !- Field 15
    0.8,                     !- Field 16
    Until:  11:00,           !- Field 17
    0.81,                    !- Field 18
    Until:  13:00,           !- Field 19
    0.82,                    !- Field 20
    Until:  14:00,           !- Field 21
    0.81,                    !- Field 22
    Until:  15:00,           !- Field 23
    0.8,                     !- Field 24
    Until:  16:00,           !- Field 25
    0.78,                    !- Field 26
    Until:  17:00,           !- Field 27
    0.75,                    !- Field 28
    Until:  18:00,           !- Field 29
    0.66,                    !- Field 30
    Until:  19:00,           !- Field 31
    0.28,                    !- Field 32
    Until:  24:00,           !- Field 33
    0.08,                    !- Field 34
    For: Saturday,           !- Field 35
    Until:  5:00,            !- Field 36
    0.04,                    !- Field 37
    Until:  6:00,            !- Field 38
    0.09,                    !- Field 39
    Until:  7:00,            !- Field 40
    0.13,                    !- Field 41
    Until: 14:00,            !- Field 42
    0.22,                    !- Field 43
    Until: 17:00,            !- Field 44
    0.17,                    !- Field 45
    Until: 18:00,            !- Field 46
    0.13,                    !- Field 47
    Until: 24:00,            !- Field 48
    0.09,                    !- Field 49
    For: Sunday Holidays WinterDesignDay AllOtherDays,  !- Field 50
    Until:  5:00,            !- Field 51
    0.04,                    !- Field 52
    Until:  7:00,            !- Field 53
    0.09,                    !- Field 54
    Until:  17:00,           !- Field 55
    0.13,                    !- Field 56
    Until:  20:00,           !- Field 57
    0.09,                    !- Field 58
    Until:  24:00,           !- Field 59
    0.04;                    !- Field 60

Schedule:Compact,
    LIT_ManualDimming-SCHED, !- Name
    Any Number,              !- Schedule Type Limits Name
    Through: 12/31,          !- Field 1
    For: Weekdays SummerDesignDay,  !- Field 2
    Until:  4:00,            !- Field 3
    0.05,                    !- Field 4
    Until:  5:00,            !- Field 5
    0.09,                    !- Field 6
    Until:  6:00,            !- Field 7
    0.18,                    !- Field 8
    Until:  7:00,            !- Field 9
    0.36,                    !- Field 10
    Until:  8:00,            !- Field 11
    0.63,                    !- Field 12
    Until:  9:00,            !- Field 13
    0.72,                    !- Field 14
    Until:  17:00,           !- Field 15
    0.77,                    !- Field 16
    Until:  18:00,           !- Field 17
    0.72,                    !- Field 18
    Until:  19:00,           !- Field 19
    0.32,                    !- Field 20
    Until: 24:00,            !- Field 21
    0.09,                    !- Field 22
    For: Saturday,           !- Field 23
    Until:  5:00,            !- Field 24
    0.05,                    !- Field 25
    Until:  6:00,            !- Field 26
    0.09,                    !- Field 27
    Until:  7:00,            !- Field 28
    0.14,                    !- Field 29
    Until: 14:00,            !- Field 30
    0.23,                    !- Field 31
    Until: 17:00,            !- Field 32
    0.18,                    !- Field 33
    Until: 18:00,            !- Field 34
    0.14,                    !- Field 35
    Until: 24:00,            !- Field 36
    0.09,                    !- Field 37
    For: Sunday Holidays WinterDesignDay AllOtherDays,  !- Field 38
    Until:  5:00,            !- Field 39
    0.05,                    !- Field 40
    Until:  7:00,            !- Field 41
    0.09,                    !- Field 42
    Until:  17:00,           !- Field 43
    0.14,                    !- Field 44
    Until:  20:00,           !- Field 45
    0.09,                    !- Field 46
    Until:  24:00,           !- Field 47
    0.05;                    !- Field 48

Schedule:Compact,
    LIT_ProgramMulti-SCHED,  !- Name
    Any Number,              !- Schedule Type Limits Name
    Through: 12/31,          !- Field 1
    For: Weekdays SummerDesignDay,  !- Field 2
    Until:  4:00,            !- Field 3
    0.04,                    !- Field 4
    Until:  5:00,            !- Field 5
    0.08,                    !- Field 6
    Until:  6:00,            !- Field 7
    0.16,                    !- Field 8
    Until:  7:00,            !- Field 9
    0.32,                    !- Field 10
    Until:  8:00,            !- Field 11
    0.56,                    !- Field 12
    Until:  9:00,            !- Field 13
    0.64,                    !- Field 14
    Until:  17:00,           !- Field 15
    0.68,                    !- Field 16
    Until:  18:00,           !- Field 17
    0.64,                    !- Field 18
    Until:  19:00,           !- Field 19
    0.28,                    !- Field 20
    Until:  24:00,           !- Field 21
    0.08,                    !- Field 22
    For: Saturday,           !- Field 23
    Until:  5:00,            !- Field 24
    0.04,                    !- Field 25
    Until:  6:00,            !- Field 26
    0.08,                    !- Field 27
    Until:  7:00,            !- Field 28
    0.12,                    !- Field 29
    Until: 14:00,            !- Field 30
    0.2,                     !- Field 31
    Until: 17:00,            !- Field 32
    0.16,                    !- Field 33
    Until: 18:00,            !- Field 34
    0.12,                    !- Field 35
    Until: 24:00,            !- Field 36
    0.08,                    !- Field 37
    For: Sunday Holidays WinterDesignDay AllOtherDays,  !- Field 38
    Until:  5:00,            !- Field 39
    0.04,                    !- Field 40
    Until:  7:00,            !- Field 41
    0.08,                    !- Field 42
    Until:  17:00,           !- Field 43
    0.12,                    !- Field 44
    Until:  20:00,           !- Field 45
    0.08,                    !- Field 46
    Until:  24:00,           !- Field 47
    0.04;                    !- Field 48

Schedule:Compact,
    LIT_CombinedDaylight-SCHED,  !- Name
    Any Number,              !- Schedule Type Limits Name
    Through: 12/31,          !- Field 1
    For: Weekdays SummerDesignDay,  !- Field 2
    Until:  4:00,            !- Field 3
    0.04,                    !- Field 4
    Until:  5:00,            !- Field 5
    0.08,                    !- Field 6
    Until:  6:00,            !- Field 7
    0.15,                    !- Field 8
    Until:  7:00,            !- Field 9
    0.31,                    !- Field 10
    Until:  8:00,            !- Field 11
    0.56,                    !- Field 12
    Until:  9:00,            !- Field 13
    0.67,                    !- Field 14
    Until:  10:00,           !- Field 15
    0.73,                    !- Field 16
    Until:  14:00,           !- Field 17
    0.74,                    !- Field 18
    Until:  15:00,           !- Field 19
    0.73,                    !- Field 20
    Until:  16:00,           !- Field 21
    0.71,                    !- Field 22
    Until:  17:00,           !- Field 23
    0.7,                     !- Field 24
    Until:  18:00,           !- Field 25
    0.64,                    !- Field 26
    Until:  19:00,           !- Field 27
    0.28,                    !- Field 28
    Until:  21:00,           !- Field 29
    0.08,                    !- Field 30
    Until:  23:00,           !- Field 31
    0.07,                    !- Field 32
    Until:  24:00,           !- Field 33
    0.08,                    !- Field 34
    For: Saturday,           !- Field 35
    Until:  5:00,            !- Field 36
    0.04,                    !- Field 37
    Until:  6:00,            !- Field 38
    0.08,                    !- Field 39
    Until:  7:00,            !- Field 40
    0.12,                    !- Field 41
    Until:  8:00,            !- Field 42
    0.2,                     !- Field 43
    Until:  9:00,            !- Field 44
    0.21,                    !- Field 45
    Until: 14:00,            !- Field 46
    0.22,                    !- Field 47
    Until: 16:00,            !- Field 48
    0.17,                    !- Field 49
    Until: 17:00,            !- Field 50
    0.16,                    !- Field 51
    Until: 18:00,            !- Field 52
    0.12,                    !- Field 53
    Until: 21:00,            !- Field 54
    0.08,                    !- Field 55
    Until: 23:00,            !- Field 56
    0.07,                    !- Field 57
    Until: 24:00,            !- Field 58
    0.08,                    !- Field 59
    For: Sunday Holidays WinterDesignDay AllOtherDays,  !- Field 60
    Until:  5:00,            !- Field 61
    0.04,                    !- Field 62
    Until:  7:00,            !- Field 63
    0.08,                    !- Field 64
    Until:  8:00,            !- Field 65
    0.12,                    !- Field 66
    Until:  16:00,           !- Field 67
    0.13,                    !- Field 68
    Until:  17:00,           !- Field 69
    0.12,                    !- Field 70
    Until:  20:00,           !- Field 71
    0.08,                    !- Field 72
    Until:  24:00,           !- Field 73
    0.04;                    !- Field 74

Schedule:Compact,
    LIT_CombinedDimming-SCHED,  !- Name